*SPEF "ieee 1481-1999"
*DESIGN "SEVEN_SEG_DECODER"
*DATE "11:11:11 Fri 11 11, 1111"
*VENDOR "OpenRCX"
*PROGRAM "Parallel Extraction"
*VERSION "1.0"
*DESIGN_FLOW "NAME_SCOPE LOCAL" "PIN_CAP NONE"
*DIVIDER /
*DELIMITER :
*BUS_DELIMITER []
*T_UNIT 1 NS
*C_UNIT 1 PF
*R_UNIT 1 OHM
*L_UNIT 1 HENRY

*NAME_MAP
*1 a
*2 b
*3 c
*4 d
*5 e
*6 f
*7 g
*8 i[0]
*9 i[1]
*10 i[2]
*11 i[3]
*14 _00_
*15 _01_
*16 _02_
*17 _03_
*18 _04_
*19 _05_
*20 _06_
*21 _07_
*22 _08_
*23 _09_
*24 _10_
*25 _11_
*26 net1
*27 net10
*28 net11
*29 net2
*30 net3
*31 net4
*32 net5
*33 net6
*34 net7
*35 net8
*36 net9
*37 ANTENNA__12__I
*38 ANTENNA__13__I
*39 ANTENNA__14__I
*40 ANTENNA__15__A1
*41 ANTENNA__15__A2
*42 ANTENNA__16__S
*43 ANTENNA__17__A1
*44 ANTENNA__17__A2
*45 ANTENNA__18__A1
*46 ANTENNA__19__I
*47 ANTENNA__22__I
*48 ANTENNA__23__A1
*49 ANTENNA__24__I
*50 ANTENNA__25__A1
*51 ANTENNA__26__B
*52 ANTENNA__28__A2
*53 ANTENNA__28__B
*54 ANTENNA_input1_I
*55 ANTENNA_input2_I
*56 ANTENNA_input3_I
*57 ANTENNA_input4_I
*58 ANTENNA_output10_I
*59 ANTENNA_output11_I
*60 ANTENNA_output5_I
*61 ANTENNA_output6_I
*62 FILLER_0_102
*63 FILLER_0_104
*64 FILLER_0_107
*65 FILLER_0_139
*66 FILLER_0_142
*67 FILLER_0_174
*68 FILLER_0_177
*69 FILLER_0_187
*70 FILLER_0_195
*71 FILLER_0_2
*72 FILLER_0_203
*73 FILLER_0_207
*74 FILLER_0_209
*75 FILLER_0_212
*76 FILLER_0_244
*77 FILLER_0_247
*78 FILLER_0_279
*79 FILLER_0_282
*80 FILLER_0_314
*81 FILLER_0_317
*82 FILLER_0_320
*83 FILLER_0_328
*84 FILLER_0_34
*85 FILLER_0_344
*86 FILLER_0_348
*87 FILLER_0_352
*88 FILLER_0_37
*89 FILLER_0_384
*90 FILLER_0_387
*91 FILLER_0_419
*92 FILLER_0_422
*93 FILLER_0_438
*94 FILLER_0_446
*95 FILLER_0_450
*96 FILLER_0_454
*97 FILLER_0_457
*98 FILLER_0_483
*99 FILLER_0_487
*100 FILLER_0_489
*101 FILLER_0_492
*102 FILLER_0_508
*103 FILLER_0_53
*104 FILLER_0_61
*105 FILLER_0_65
*106 FILLER_0_69
*107 FILLER_0_72
*108 FILLER_0_98
*109 FILLER_10_101
*110 FILLER_10_105
*111 FILLER_10_108
*112 FILLER_10_172
*113 FILLER_10_176
*114 FILLER_10_179
*115 FILLER_10_2
*116 FILLER_10_243
*117 FILLER_10_247
*118 FILLER_10_250
*119 FILLER_10_314
*120 FILLER_10_318
*121 FILLER_10_321
*122 FILLER_10_34
*123 FILLER_10_37
*124 FILLER_10_385
*125 FILLER_10_389
*126 FILLER_10_392
*127 FILLER_10_456
*128 FILLER_10_460
*129 FILLER_10_463
*130 FILLER_10_495
*131 FILLER_10_503
*132 FILLER_10_507
*133 FILLER_11_137
*134 FILLER_11_141
*135 FILLER_11_144
*136 FILLER_11_2
*137 FILLER_11_208
*138 FILLER_11_212
*139 FILLER_11_215
*140 FILLER_11_279
*141 FILLER_11_283
*142 FILLER_11_286
*143 FILLER_11_350
*144 FILLER_11_354
*145 FILLER_11_357
*146 FILLER_11_421
*147 FILLER_11_425
*148 FILLER_11_428
*149 FILLER_11_492
*150 FILLER_11_496
*151 FILLER_11_499
*152 FILLER_11_507
*153 FILLER_11_66
*154 FILLER_11_70
*155 FILLER_11_73
*156 FILLER_12_101
*157 FILLER_12_105
*158 FILLER_12_108
*159 FILLER_12_172
*160 FILLER_12_176
*161 FILLER_12_179
*162 FILLER_12_2
*163 FILLER_12_243
*164 FILLER_12_247
*165 FILLER_12_250
*166 FILLER_12_314
*167 FILLER_12_318
*168 FILLER_12_321
*169 FILLER_12_34
*170 FILLER_12_37
*171 FILLER_12_385
*172 FILLER_12_389
*173 FILLER_12_392
*174 FILLER_12_456
*175 FILLER_12_460
*176 FILLER_12_463
*177 FILLER_12_495
*178 FILLER_12_503
*179 FILLER_12_507
*180 FILLER_13_137
*181 FILLER_13_141
*182 FILLER_13_144
*183 FILLER_13_2
*184 FILLER_13_208
*185 FILLER_13_212
*186 FILLER_13_215
*187 FILLER_13_279
*188 FILLER_13_283
*189 FILLER_13_286
*190 FILLER_13_350
*191 FILLER_13_354
*192 FILLER_13_357
*193 FILLER_13_421
*194 FILLER_13_425
*195 FILLER_13_428
*196 FILLER_13_492
*197 FILLER_13_496
*198 FILLER_13_499
*199 FILLER_13_507
*200 FILLER_13_66
*201 FILLER_13_70
*202 FILLER_13_73
*203 FILLER_14_101
*204 FILLER_14_105
*205 FILLER_14_108
*206 FILLER_14_172
*207 FILLER_14_176
*208 FILLER_14_179
*209 FILLER_14_2
*210 FILLER_14_243
*211 FILLER_14_247
*212 FILLER_14_250
*213 FILLER_14_314
*214 FILLER_14_318
*215 FILLER_14_321
*216 FILLER_14_34
*217 FILLER_14_37
*218 FILLER_14_385
*219 FILLER_14_389
*220 FILLER_14_392
*221 FILLER_14_456
*222 FILLER_14_460
*223 FILLER_14_463
*224 FILLER_14_495
*225 FILLER_14_503
*226 FILLER_14_507
*227 FILLER_15_137
*228 FILLER_15_141
*229 FILLER_15_144
*230 FILLER_15_2
*231 FILLER_15_208
*232 FILLER_15_212
*233 FILLER_15_215
*234 FILLER_15_279
*235 FILLER_15_283
*236 FILLER_15_286
*237 FILLER_15_350
*238 FILLER_15_354
*239 FILLER_15_357
*240 FILLER_15_421
*241 FILLER_15_425
*242 FILLER_15_428
*243 FILLER_15_492
*244 FILLER_15_496
*245 FILLER_15_499
*246 FILLER_15_507
*247 FILLER_15_66
*248 FILLER_15_70
*249 FILLER_15_73
*250 FILLER_16_101
*251 FILLER_16_105
*252 FILLER_16_108
*253 FILLER_16_172
*254 FILLER_16_176
*255 FILLER_16_179
*256 FILLER_16_2
*257 FILLER_16_243
*258 FILLER_16_247
*259 FILLER_16_250
*260 FILLER_16_314
*261 FILLER_16_318
*262 FILLER_16_321
*263 FILLER_16_34
*264 FILLER_16_37
*265 FILLER_16_385
*266 FILLER_16_389
*267 FILLER_16_392
*268 FILLER_16_456
*269 FILLER_16_460
*270 FILLER_16_463
*271 FILLER_16_495
*272 FILLER_16_503
*273 FILLER_16_507
*274 FILLER_17_137
*275 FILLER_17_141
*276 FILLER_17_144
*277 FILLER_17_2
*278 FILLER_17_208
*279 FILLER_17_212
*280 FILLER_17_215
*281 FILLER_17_279
*282 FILLER_17_283
*283 FILLER_17_286
*284 FILLER_17_350
*285 FILLER_17_354
*286 FILLER_17_357
*287 FILLER_17_421
*288 FILLER_17_425
*289 FILLER_17_428
*290 FILLER_17_492
*291 FILLER_17_496
*292 FILLER_17_499
*293 FILLER_17_507
*294 FILLER_17_66
*295 FILLER_17_70
*296 FILLER_17_73
*297 FILLER_18_101
*298 FILLER_18_105
*299 FILLER_18_108
*300 FILLER_18_172
*301 FILLER_18_176
*302 FILLER_18_179
*303 FILLER_18_2
*304 FILLER_18_243
*305 FILLER_18_247
*306 FILLER_18_250
*307 FILLER_18_314
*308 FILLER_18_318
*309 FILLER_18_321
*310 FILLER_18_34
*311 FILLER_18_37
*312 FILLER_18_385
*313 FILLER_18_389
*314 FILLER_18_392
*315 FILLER_18_456
*316 FILLER_18_460
*317 FILLER_18_463
*318 FILLER_18_495
*319 FILLER_18_503
*320 FILLER_18_507
*321 FILLER_19_137
*322 FILLER_19_141
*323 FILLER_19_144
*324 FILLER_19_2
*325 FILLER_19_208
*326 FILLER_19_212
*327 FILLER_19_215
*328 FILLER_19_279
*329 FILLER_19_283
*330 FILLER_19_286
*331 FILLER_19_350
*332 FILLER_19_354
*333 FILLER_19_357
*334 FILLER_19_421
*335 FILLER_19_425
*336 FILLER_19_428
*337 FILLER_19_492
*338 FILLER_19_496
*339 FILLER_19_499
*340 FILLER_19_507
*341 FILLER_19_66
*342 FILLER_19_70
*343 FILLER_19_73
*344 FILLER_1_137
*345 FILLER_1_141
*346 FILLER_1_144
*347 FILLER_1_2
*348 FILLER_1_208
*349 FILLER_1_212
*350 FILLER_1_215
*351 FILLER_1_279
*352 FILLER_1_283
*353 FILLER_1_286
*354 FILLER_1_350
*355 FILLER_1_354
*356 FILLER_1_357
*357 FILLER_1_421
*358 FILLER_1_425
*359 FILLER_1_428
*360 FILLER_1_492
*361 FILLER_1_496
*362 FILLER_1_499
*363 FILLER_1_507
*364 FILLER_1_66
*365 FILLER_1_70
*366 FILLER_1_73
*367 FILLER_20_101
*368 FILLER_20_105
*369 FILLER_20_108
*370 FILLER_20_172
*371 FILLER_20_176
*372 FILLER_20_179
*373 FILLER_20_2
*374 FILLER_20_243
*375 FILLER_20_247
*376 FILLER_20_250
*377 FILLER_20_314
*378 FILLER_20_318
*379 FILLER_20_321
*380 FILLER_20_34
*381 FILLER_20_37
*382 FILLER_20_385
*383 FILLER_20_389
*384 FILLER_20_392
*385 FILLER_20_456
*386 FILLER_20_460
*387 FILLER_20_463
*388 FILLER_20_495
*389 FILLER_20_503
*390 FILLER_20_507
*391 FILLER_21_137
*392 FILLER_21_141
*393 FILLER_21_144
*394 FILLER_21_2
*395 FILLER_21_208
*396 FILLER_21_212
*397 FILLER_21_215
*398 FILLER_21_279
*399 FILLER_21_283
*400 FILLER_21_286
*401 FILLER_21_350
*402 FILLER_21_354
*403 FILLER_21_357
*404 FILLER_21_421
*405 FILLER_21_425
*406 FILLER_21_428
*407 FILLER_21_492
*408 FILLER_21_496
*409 FILLER_21_499
*410 FILLER_21_507
*411 FILLER_21_66
*412 FILLER_21_70
*413 FILLER_21_73
*414 FILLER_22_101
*415 FILLER_22_105
*416 FILLER_22_108
*417 FILLER_22_172
*418 FILLER_22_176
*419 FILLER_22_179
*420 FILLER_22_2
*421 FILLER_22_243
*422 FILLER_22_247
*423 FILLER_22_250
*424 FILLER_22_314
*425 FILLER_22_318
*426 FILLER_22_321
*427 FILLER_22_34
*428 FILLER_22_37
*429 FILLER_22_385
*430 FILLER_22_389
*431 FILLER_22_392
*432 FILLER_22_456
*433 FILLER_22_460
*434 FILLER_22_463
*435 FILLER_22_495
*436 FILLER_22_503
*437 FILLER_22_507
*438 FILLER_23_137
*439 FILLER_23_141
*440 FILLER_23_144
*441 FILLER_23_2
*442 FILLER_23_208
*443 FILLER_23_212
*444 FILLER_23_215
*445 FILLER_23_279
*446 FILLER_23_283
*447 FILLER_23_286
*448 FILLER_23_350
*449 FILLER_23_354
*450 FILLER_23_357
*451 FILLER_23_421
*452 FILLER_23_425
*453 FILLER_23_428
*454 FILLER_23_492
*455 FILLER_23_496
*456 FILLER_23_499
*457 FILLER_23_507
*458 FILLER_23_66
*459 FILLER_23_70
*460 FILLER_23_73
*461 FILLER_24_101
*462 FILLER_24_105
*463 FILLER_24_108
*464 FILLER_24_172
*465 FILLER_24_176
*466 FILLER_24_179
*467 FILLER_24_2
*468 FILLER_24_243
*469 FILLER_24_247
*470 FILLER_24_250
*471 FILLER_24_314
*472 FILLER_24_318
*473 FILLER_24_321
*474 FILLER_24_34
*475 FILLER_24_37
*476 FILLER_24_385
*477 FILLER_24_389
*478 FILLER_24_392
*479 FILLER_24_456
*480 FILLER_24_460
*481 FILLER_24_463
*482 FILLER_24_495
*483 FILLER_24_503
*484 FILLER_24_507
*485 FILLER_25_137
*486 FILLER_25_141
*487 FILLER_25_144
*488 FILLER_25_2
*489 FILLER_25_208
*490 FILLER_25_212
*491 FILLER_25_215
*492 FILLER_25_279
*493 FILLER_25_283
*494 FILLER_25_286
*495 FILLER_25_350
*496 FILLER_25_354
*497 FILLER_25_357
*498 FILLER_25_421
*499 FILLER_25_425
*500 FILLER_25_428
*501 FILLER_25_492
*502 FILLER_25_496
*503 FILLER_25_499
*504 FILLER_25_507
*505 FILLER_25_66
*506 FILLER_25_70
*507 FILLER_25_73
*508 FILLER_26_101
*509 FILLER_26_105
*510 FILLER_26_108
*511 FILLER_26_172
*512 FILLER_26_176
*513 FILLER_26_179
*514 FILLER_26_2
*515 FILLER_26_243
*516 FILLER_26_247
*517 FILLER_26_250
*518 FILLER_26_314
*519 FILLER_26_318
*520 FILLER_26_321
*521 FILLER_26_34
*522 FILLER_26_37
*523 FILLER_26_385
*524 FILLER_26_389
*525 FILLER_26_392
*526 FILLER_26_456
*527 FILLER_26_460
*528 FILLER_26_463
*529 FILLER_26_495
*530 FILLER_26_503
*531 FILLER_26_507
*532 FILLER_27_137
*533 FILLER_27_141
*534 FILLER_27_144
*535 FILLER_27_2
*536 FILLER_27_208
*537 FILLER_27_212
*538 FILLER_27_215
*539 FILLER_27_279
*540 FILLER_27_283
*541 FILLER_27_286
*542 FILLER_27_350
*543 FILLER_27_354
*544 FILLER_27_357
*545 FILLER_27_421
*546 FILLER_27_425
*547 FILLER_27_428
*548 FILLER_27_492
*549 FILLER_27_496
*550 FILLER_27_499
*551 FILLER_27_507
*552 FILLER_27_66
*553 FILLER_27_70
*554 FILLER_27_73
*555 FILLER_28_101
*556 FILLER_28_105
*557 FILLER_28_108
*558 FILLER_28_172
*559 FILLER_28_176
*560 FILLER_28_179
*561 FILLER_28_2
*562 FILLER_28_243
*563 FILLER_28_247
*564 FILLER_28_250
*565 FILLER_28_314
*566 FILLER_28_318
*567 FILLER_28_321
*568 FILLER_28_34
*569 FILLER_28_37
*570 FILLER_28_385
*571 FILLER_28_389
*572 FILLER_28_392
*573 FILLER_28_456
*574 FILLER_28_460
*575 FILLER_28_463
*576 FILLER_28_495
*577 FILLER_28_503
*578 FILLER_28_507
*579 FILLER_29_137
*580 FILLER_29_141
*581 FILLER_29_144
*582 FILLER_29_2
*583 FILLER_29_208
*584 FILLER_29_212
*585 FILLER_29_215
*586 FILLER_29_279
*587 FILLER_29_283
*588 FILLER_29_286
*589 FILLER_29_350
*590 FILLER_29_354
*591 FILLER_29_357
*592 FILLER_29_421
*593 FILLER_29_425
*594 FILLER_29_428
*595 FILLER_29_492
*596 FILLER_29_496
*597 FILLER_29_499
*598 FILLER_29_507
*599 FILLER_29_66
*600 FILLER_29_70
*601 FILLER_29_73
*602 FILLER_2_101
*603 FILLER_2_105
*604 FILLER_2_108
*605 FILLER_2_172
*606 FILLER_2_176
*607 FILLER_2_179
*608 FILLER_2_2
*609 FILLER_2_243
*610 FILLER_2_247
*611 FILLER_2_250
*612 FILLER_2_314
*613 FILLER_2_318
*614 FILLER_2_321
*615 FILLER_2_34
*616 FILLER_2_37
*617 FILLER_2_385
*618 FILLER_2_389
*619 FILLER_2_392
*620 FILLER_2_456
*621 FILLER_2_460
*622 FILLER_2_463
*623 FILLER_2_495
*624 FILLER_2_503
*625 FILLER_2_507
*626 FILLER_30_101
*627 FILLER_30_105
*628 FILLER_30_108
*629 FILLER_30_172
*630 FILLER_30_176
*631 FILLER_30_179
*632 FILLER_30_2
*633 FILLER_30_243
*634 FILLER_30_247
*635 FILLER_30_250
*636 FILLER_30_314
*637 FILLER_30_318
*638 FILLER_30_321
*639 FILLER_30_34
*640 FILLER_30_37
*641 FILLER_30_385
*642 FILLER_30_389
*643 FILLER_30_392
*644 FILLER_30_456
*645 FILLER_30_460
*646 FILLER_30_463
*647 FILLER_30_495
*648 FILLER_30_503
*649 FILLER_30_507
*650 FILLER_31_137
*651 FILLER_31_141
*652 FILLER_31_144
*653 FILLER_31_2
*654 FILLER_31_208
*655 FILLER_31_212
*656 FILLER_31_215
*657 FILLER_31_279
*658 FILLER_31_283
*659 FILLER_31_286
*660 FILLER_31_350
*661 FILLER_31_354
*662 FILLER_31_357
*663 FILLER_31_421
*664 FILLER_31_425
*665 FILLER_31_428
*666 FILLER_31_492
*667 FILLER_31_496
*668 FILLER_31_499
*669 FILLER_31_507
*670 FILLER_31_66
*671 FILLER_31_70
*672 FILLER_31_73
*673 FILLER_32_101
*674 FILLER_32_105
*675 FILLER_32_108
*676 FILLER_32_172
*677 FILLER_32_176
*678 FILLER_32_179
*679 FILLER_32_2
*680 FILLER_32_243
*681 FILLER_32_247
*682 FILLER_32_250
*683 FILLER_32_314
*684 FILLER_32_318
*685 FILLER_32_321
*686 FILLER_32_34
*687 FILLER_32_37
*688 FILLER_32_385
*689 FILLER_32_389
*690 FILLER_32_392
*691 FILLER_32_456
*692 FILLER_32_460
*693 FILLER_32_463
*694 FILLER_32_495
*695 FILLER_32_503
*696 FILLER_32_507
*697 FILLER_33_137
*698 FILLER_33_141
*699 FILLER_33_144
*700 FILLER_33_2
*701 FILLER_33_208
*702 FILLER_33_212
*703 FILLER_33_215
*704 FILLER_33_279
*705 FILLER_33_283
*706 FILLER_33_286
*707 FILLER_33_350
*708 FILLER_33_354
*709 FILLER_33_357
*710 FILLER_33_421
*711 FILLER_33_425
*712 FILLER_33_428
*713 FILLER_33_492
*714 FILLER_33_496
*715 FILLER_33_499
*716 FILLER_33_507
*717 FILLER_33_66
*718 FILLER_33_70
*719 FILLER_33_73
*720 FILLER_34_101
*721 FILLER_34_105
*722 FILLER_34_108
*723 FILLER_34_172
*724 FILLER_34_176
*725 FILLER_34_179
*726 FILLER_34_2
*727 FILLER_34_243
*728 FILLER_34_247
*729 FILLER_34_250
*730 FILLER_34_314
*731 FILLER_34_318
*732 FILLER_34_321
*733 FILLER_34_34
*734 FILLER_34_37
*735 FILLER_34_385
*736 FILLER_34_389
*737 FILLER_34_392
*738 FILLER_34_456
*739 FILLER_34_460
*740 FILLER_34_463
*741 FILLER_34_495
*742 FILLER_34_503
*743 FILLER_34_507
*744 FILLER_35_137
*745 FILLER_35_141
*746 FILLER_35_144
*747 FILLER_35_2
*748 FILLER_35_208
*749 FILLER_35_212
*750 FILLER_35_215
*751 FILLER_35_279
*752 FILLER_35_283
*753 FILLER_35_286
*754 FILLER_35_350
*755 FILLER_35_354
*756 FILLER_35_357
*757 FILLER_35_421
*758 FILLER_35_425
*759 FILLER_35_428
*760 FILLER_35_492
*761 FILLER_35_496
*762 FILLER_35_499
*763 FILLER_35_507
*764 FILLER_35_66
*765 FILLER_35_70
*766 FILLER_35_73
*767 FILLER_36_101
*768 FILLER_36_105
*769 FILLER_36_108
*770 FILLER_36_172
*771 FILLER_36_176
*772 FILLER_36_179
*773 FILLER_36_2
*774 FILLER_36_243
*775 FILLER_36_247
*776 FILLER_36_250
*777 FILLER_36_314
*778 FILLER_36_318
*779 FILLER_36_321
*780 FILLER_36_34
*781 FILLER_36_37
*782 FILLER_36_385
*783 FILLER_36_389
*784 FILLER_36_392
*785 FILLER_36_456
*786 FILLER_36_460
*787 FILLER_36_463
*788 FILLER_36_495
*789 FILLER_36_503
*790 FILLER_36_507
*791 FILLER_37_137
*792 FILLER_37_141
*793 FILLER_37_144
*794 FILLER_37_2
*795 FILLER_37_208
*796 FILLER_37_212
*797 FILLER_37_215
*798 FILLER_37_279
*799 FILLER_37_283
*800 FILLER_37_286
*801 FILLER_37_350
*802 FILLER_37_354
*803 FILLER_37_357
*804 FILLER_37_421
*805 FILLER_37_425
*806 FILLER_37_428
*807 FILLER_37_492
*808 FILLER_37_496
*809 FILLER_37_499
*810 FILLER_37_507
*811 FILLER_37_66
*812 FILLER_37_70
*813 FILLER_37_73
*814 FILLER_38_101
*815 FILLER_38_105
*816 FILLER_38_108
*817 FILLER_38_172
*818 FILLER_38_176
*819 FILLER_38_179
*820 FILLER_38_2
*821 FILLER_38_243
*822 FILLER_38_247
*823 FILLER_38_250
*824 FILLER_38_314
*825 FILLER_38_318
*826 FILLER_38_321
*827 FILLER_38_34
*828 FILLER_38_37
*829 FILLER_38_385
*830 FILLER_38_389
*831 FILLER_38_392
*832 FILLER_38_456
*833 FILLER_38_460
*834 FILLER_38_463
*835 FILLER_38_495
*836 FILLER_38_503
*837 FILLER_38_507
*838 FILLER_39_137
*839 FILLER_39_141
*840 FILLER_39_144
*841 FILLER_39_2
*842 FILLER_39_208
*843 FILLER_39_212
*844 FILLER_39_215
*845 FILLER_39_279
*846 FILLER_39_283
*847 FILLER_39_286
*848 FILLER_39_350
*849 FILLER_39_354
*850 FILLER_39_357
*851 FILLER_39_421
*852 FILLER_39_425
*853 FILLER_39_428
*854 FILLER_39_492
*855 FILLER_39_496
*856 FILLER_39_499
*857 FILLER_39_507
*858 FILLER_39_66
*859 FILLER_39_70
*860 FILLER_39_73
*861 FILLER_3_137
*862 FILLER_3_141
*863 FILLER_3_144
*864 FILLER_3_2
*865 FILLER_3_208
*866 FILLER_3_212
*867 FILLER_3_215
*868 FILLER_3_279
*869 FILLER_3_283
*870 FILLER_3_286
*871 FILLER_3_350
*872 FILLER_3_354
*873 FILLER_3_357
*874 FILLER_3_421
*875 FILLER_3_425
*876 FILLER_3_428
*877 FILLER_3_492
*878 FILLER_3_496
*879 FILLER_3_499
*880 FILLER_3_507
*881 FILLER_3_66
*882 FILLER_3_70
*883 FILLER_3_73
*884 FILLER_40_101
*885 FILLER_40_105
*886 FILLER_40_108
*887 FILLER_40_172
*888 FILLER_40_176
*889 FILLER_40_179
*890 FILLER_40_2
*891 FILLER_40_243
*892 FILLER_40_247
*893 FILLER_40_250
*894 FILLER_40_314
*895 FILLER_40_318
*896 FILLER_40_321
*897 FILLER_40_34
*898 FILLER_40_37
*899 FILLER_40_385
*900 FILLER_40_389
*901 FILLER_40_392
*902 FILLER_40_456
*903 FILLER_40_460
*904 FILLER_40_463
*905 FILLER_40_495
*906 FILLER_40_503
*907 FILLER_40_507
*908 FILLER_41_137
*909 FILLER_41_141
*910 FILLER_41_144
*911 FILLER_41_2
*912 FILLER_41_208
*913 FILLER_41_212
*914 FILLER_41_215
*915 FILLER_41_279
*916 FILLER_41_283
*917 FILLER_41_286
*918 FILLER_41_350
*919 FILLER_41_354
*920 FILLER_41_357
*921 FILLER_41_421
*922 FILLER_41_425
*923 FILLER_41_428
*924 FILLER_41_492
*925 FILLER_41_496
*926 FILLER_41_499
*927 FILLER_41_507
*928 FILLER_41_66
*929 FILLER_41_70
*930 FILLER_41_73
*931 FILLER_42_101
*932 FILLER_42_105
*933 FILLER_42_108
*934 FILLER_42_172
*935 FILLER_42_176
*936 FILLER_42_179
*937 FILLER_42_2
*938 FILLER_42_243
*939 FILLER_42_247
*940 FILLER_42_250
*941 FILLER_42_314
*942 FILLER_42_318
*943 FILLER_42_321
*944 FILLER_42_34
*945 FILLER_42_37
*946 FILLER_42_385
*947 FILLER_42_389
*948 FILLER_42_392
*949 FILLER_42_456
*950 FILLER_42_460
*951 FILLER_42_463
*952 FILLER_42_495
*953 FILLER_42_503
*954 FILLER_42_507
*955 FILLER_43_137
*956 FILLER_43_141
*957 FILLER_43_144
*958 FILLER_43_2
*959 FILLER_43_208
*960 FILLER_43_212
*961 FILLER_43_215
*962 FILLER_43_279
*963 FILLER_43_283
*964 FILLER_43_286
*965 FILLER_43_350
*966 FILLER_43_354
*967 FILLER_43_357
*968 FILLER_43_421
*969 FILLER_43_425
*970 FILLER_43_428
*971 FILLER_43_492
*972 FILLER_43_496
*973 FILLER_43_499
*974 FILLER_43_507
*975 FILLER_43_66
*976 FILLER_43_70
*977 FILLER_43_73
*978 FILLER_44_101
*979 FILLER_44_105
*980 FILLER_44_108
*981 FILLER_44_172
*982 FILLER_44_176
*983 FILLER_44_179
*984 FILLER_44_2
*985 FILLER_44_243
*986 FILLER_44_247
*987 FILLER_44_250
*988 FILLER_44_314
*989 FILLER_44_318
*990 FILLER_44_321
*991 FILLER_44_34
*992 FILLER_44_37
*993 FILLER_44_385
*994 FILLER_44_389
*995 FILLER_44_392
*996 FILLER_44_456
*997 FILLER_44_460
*998 FILLER_44_463
*999 FILLER_44_495
*1000 FILLER_44_503
*1001 FILLER_44_507
*1002 FILLER_45_137
*1003 FILLER_45_141
*1004 FILLER_45_144
*1005 FILLER_45_2
*1006 FILLER_45_208
*1007 FILLER_45_212
*1008 FILLER_45_215
*1009 FILLER_45_279
*1010 FILLER_45_283
*1011 FILLER_45_286
*1012 FILLER_45_350
*1013 FILLER_45_354
*1014 FILLER_45_357
*1015 FILLER_45_421
*1016 FILLER_45_425
*1017 FILLER_45_428
*1018 FILLER_45_492
*1019 FILLER_45_496
*1020 FILLER_45_499
*1021 FILLER_45_507
*1022 FILLER_45_66
*1023 FILLER_45_70
*1024 FILLER_45_73
*1025 FILLER_46_101
*1026 FILLER_46_105
*1027 FILLER_46_108
*1028 FILLER_46_172
*1029 FILLER_46_176
*1030 FILLER_46_179
*1031 FILLER_46_2
*1032 FILLER_46_243
*1033 FILLER_46_247
*1034 FILLER_46_250
*1035 FILLER_46_314
*1036 FILLER_46_318
*1037 FILLER_46_321
*1038 FILLER_46_34
*1039 FILLER_46_37
*1040 FILLER_46_385
*1041 FILLER_46_389
*1042 FILLER_46_392
*1043 FILLER_46_456
*1044 FILLER_46_460
*1045 FILLER_46_463
*1046 FILLER_46_495
*1047 FILLER_46_503
*1048 FILLER_46_507
*1049 FILLER_47_137
*1050 FILLER_47_141
*1051 FILLER_47_144
*1052 FILLER_47_2
*1053 FILLER_47_208
*1054 FILLER_47_212
*1055 FILLER_47_215
*1056 FILLER_47_279
*1057 FILLER_47_283
*1058 FILLER_47_286
*1059 FILLER_47_350
*1060 FILLER_47_354
*1061 FILLER_47_357
*1062 FILLER_47_421
*1063 FILLER_47_425
*1064 FILLER_47_428
*1065 FILLER_47_492
*1066 FILLER_47_496
*1067 FILLER_47_499
*1068 FILLER_47_507
*1069 FILLER_47_66
*1070 FILLER_47_70
*1071 FILLER_47_73
*1072 FILLER_48_101
*1073 FILLER_48_105
*1074 FILLER_48_108
*1075 FILLER_48_172
*1076 FILLER_48_176
*1077 FILLER_48_179
*1078 FILLER_48_2
*1079 FILLER_48_243
*1080 FILLER_48_247
*1081 FILLER_48_250
*1082 FILLER_48_314
*1083 FILLER_48_318
*1084 FILLER_48_321
*1085 FILLER_48_34
*1086 FILLER_48_37
*1087 FILLER_48_385
*1088 FILLER_48_389
*1089 FILLER_48_392
*1090 FILLER_48_456
*1091 FILLER_48_460
*1092 FILLER_48_463
*1093 FILLER_48_495
*1094 FILLER_48_503
*1095 FILLER_48_507
*1096 FILLER_49_137
*1097 FILLER_49_141
*1098 FILLER_49_144
*1099 FILLER_49_2
*1100 FILLER_49_208
*1101 FILLER_49_212
*1102 FILLER_49_215
*1103 FILLER_49_279
*1104 FILLER_49_283
*1105 FILLER_49_286
*1106 FILLER_49_350
*1107 FILLER_49_354
*1108 FILLER_49_357
*1109 FILLER_49_421
*1110 FILLER_49_425
*1111 FILLER_49_428
*1112 FILLER_49_492
*1113 FILLER_49_496
*1114 FILLER_49_499
*1115 FILLER_49_507
*1116 FILLER_49_66
*1117 FILLER_49_70
*1118 FILLER_49_73
*1119 FILLER_4_101
*1120 FILLER_4_105
*1121 FILLER_4_108
*1122 FILLER_4_172
*1123 FILLER_4_176
*1124 FILLER_4_179
*1125 FILLER_4_2
*1126 FILLER_4_243
*1127 FILLER_4_247
*1128 FILLER_4_250
*1129 FILLER_4_314
*1130 FILLER_4_318
*1131 FILLER_4_321
*1132 FILLER_4_34
*1133 FILLER_4_37
*1134 FILLER_4_385
*1135 FILLER_4_389
*1136 FILLER_4_392
*1137 FILLER_4_456
*1138 FILLER_4_460
*1139 FILLER_4_463
*1140 FILLER_4_495
*1141 FILLER_4_503
*1142 FILLER_4_507
*1143 FILLER_50_101
*1144 FILLER_50_105
*1145 FILLER_50_108
*1146 FILLER_50_172
*1147 FILLER_50_176
*1148 FILLER_50_179
*1149 FILLER_50_2
*1150 FILLER_50_243
*1151 FILLER_50_247
*1152 FILLER_50_250
*1153 FILLER_50_314
*1154 FILLER_50_318
*1155 FILLER_50_321
*1156 FILLER_50_34
*1157 FILLER_50_37
*1158 FILLER_50_385
*1159 FILLER_50_389
*1160 FILLER_50_392
*1161 FILLER_50_456
*1162 FILLER_50_460
*1163 FILLER_50_463
*1164 FILLER_50_495
*1165 FILLER_50_503
*1166 FILLER_50_507
*1167 FILLER_51_137
*1168 FILLER_51_141
*1169 FILLER_51_144
*1170 FILLER_51_2
*1171 FILLER_51_208
*1172 FILLER_51_212
*1173 FILLER_51_215
*1174 FILLER_51_279
*1175 FILLER_51_283
*1176 FILLER_51_286
*1177 FILLER_51_350
*1178 FILLER_51_354
*1179 FILLER_51_357
*1180 FILLER_51_421
*1181 FILLER_51_425
*1182 FILLER_51_428
*1183 FILLER_51_492
*1184 FILLER_51_496
*1185 FILLER_51_499
*1186 FILLER_51_507
*1187 FILLER_51_66
*1188 FILLER_51_70
*1189 FILLER_51_73
*1190 FILLER_52_101
*1191 FILLER_52_105
*1192 FILLER_52_108
*1193 FILLER_52_172
*1194 FILLER_52_176
*1195 FILLER_52_179
*1196 FILLER_52_2
*1197 FILLER_52_243
*1198 FILLER_52_247
*1199 FILLER_52_250
*1200 FILLER_52_314
*1201 FILLER_52_318
*1202 FILLER_52_321
*1203 FILLER_52_34
*1204 FILLER_52_37
*1205 FILLER_52_385
*1206 FILLER_52_389
*1207 FILLER_52_392
*1208 FILLER_52_456
*1209 FILLER_52_460
*1210 FILLER_52_463
*1211 FILLER_52_495
*1212 FILLER_52_503
*1213 FILLER_52_507
*1214 FILLER_53_137
*1215 FILLER_53_141
*1216 FILLER_53_144
*1217 FILLER_53_2
*1218 FILLER_53_208
*1219 FILLER_53_212
*1220 FILLER_53_215
*1221 FILLER_53_279
*1222 FILLER_53_283
*1223 FILLER_53_286
*1224 FILLER_53_350
*1225 FILLER_53_354
*1226 FILLER_53_357
*1227 FILLER_53_421
*1228 FILLER_53_425
*1229 FILLER_53_428
*1230 FILLER_53_492
*1231 FILLER_53_496
*1232 FILLER_53_499
*1233 FILLER_53_507
*1234 FILLER_53_66
*1235 FILLER_53_70
*1236 FILLER_53_73
*1237 FILLER_54_101
*1238 FILLER_54_105
*1239 FILLER_54_108
*1240 FILLER_54_172
*1241 FILLER_54_176
*1242 FILLER_54_179
*1243 FILLER_54_2
*1244 FILLER_54_243
*1245 FILLER_54_247
*1246 FILLER_54_250
*1247 FILLER_54_314
*1248 FILLER_54_318
*1249 FILLER_54_321
*1250 FILLER_54_34
*1251 FILLER_54_37
*1252 FILLER_54_385
*1253 FILLER_54_389
*1254 FILLER_54_392
*1255 FILLER_54_456
*1256 FILLER_54_460
*1257 FILLER_54_463
*1258 FILLER_54_495
*1259 FILLER_54_503
*1260 FILLER_54_507
*1261 FILLER_55_137
*1262 FILLER_55_141
*1263 FILLER_55_144
*1264 FILLER_55_2
*1265 FILLER_55_208
*1266 FILLER_55_212
*1267 FILLER_55_215
*1268 FILLER_55_279
*1269 FILLER_55_283
*1270 FILLER_55_286
*1271 FILLER_55_350
*1272 FILLER_55_354
*1273 FILLER_55_357
*1274 FILLER_55_421
*1275 FILLER_55_425
*1276 FILLER_55_428
*1277 FILLER_55_492
*1278 FILLER_55_496
*1279 FILLER_55_499
*1280 FILLER_55_507
*1281 FILLER_55_66
*1282 FILLER_55_70
*1283 FILLER_55_73
*1284 FILLER_56_101
*1285 FILLER_56_105
*1286 FILLER_56_108
*1287 FILLER_56_172
*1288 FILLER_56_176
*1289 FILLER_56_179
*1290 FILLER_56_2
*1291 FILLER_56_243
*1292 FILLER_56_247
*1293 FILLER_56_250
*1294 FILLER_56_314
*1295 FILLER_56_318
*1296 FILLER_56_321
*1297 FILLER_56_34
*1298 FILLER_56_37
*1299 FILLER_56_385
*1300 FILLER_56_389
*1301 FILLER_56_392
*1302 FILLER_56_456
*1303 FILLER_56_460
*1304 FILLER_56_463
*1305 FILLER_56_495
*1306 FILLER_56_503
*1307 FILLER_56_507
*1308 FILLER_57_137
*1309 FILLER_57_141
*1310 FILLER_57_144
*1311 FILLER_57_2
*1312 FILLER_57_208
*1313 FILLER_57_212
*1314 FILLER_57_215
*1315 FILLER_57_279
*1316 FILLER_57_283
*1317 FILLER_57_286
*1318 FILLER_57_350
*1319 FILLER_57_354
*1320 FILLER_57_357
*1321 FILLER_57_421
*1322 FILLER_57_425
*1323 FILLER_57_428
*1324 FILLER_57_492
*1325 FILLER_57_496
*1326 FILLER_57_499
*1327 FILLER_57_507
*1328 FILLER_57_66
*1329 FILLER_57_70
*1330 FILLER_57_73
*1331 FILLER_58_101
*1332 FILLER_58_105
*1333 FILLER_58_108
*1334 FILLER_58_172
*1335 FILLER_58_176
*1336 FILLER_58_179
*1337 FILLER_58_2
*1338 FILLER_58_243
*1339 FILLER_58_247
*1340 FILLER_58_250
*1341 FILLER_58_314
*1342 FILLER_58_318
*1343 FILLER_58_321
*1344 FILLER_58_34
*1345 FILLER_58_37
*1346 FILLER_58_385
*1347 FILLER_58_389
*1348 FILLER_58_392
*1349 FILLER_58_456
*1350 FILLER_58_460
*1351 FILLER_58_463
*1352 FILLER_58_495
*1353 FILLER_58_503
*1354 FILLER_58_507
*1355 FILLER_59_137
*1356 FILLER_59_141
*1357 FILLER_59_144
*1358 FILLER_59_2
*1359 FILLER_59_208
*1360 FILLER_59_212
*1361 FILLER_59_215
*1362 FILLER_59_279
*1363 FILLER_59_283
*1364 FILLER_59_286
*1365 FILLER_59_350
*1366 FILLER_59_354
*1367 FILLER_59_357
*1368 FILLER_59_421
*1369 FILLER_59_425
*1370 FILLER_59_428
*1371 FILLER_59_492
*1372 FILLER_59_496
*1373 FILLER_59_499
*1374 FILLER_59_507
*1375 FILLER_59_66
*1376 FILLER_59_70
*1377 FILLER_59_73
*1378 FILLER_5_137
*1379 FILLER_5_141
*1380 FILLER_5_144
*1381 FILLER_5_2
*1382 FILLER_5_208
*1383 FILLER_5_212
*1384 FILLER_5_215
*1385 FILLER_5_279
*1386 FILLER_5_283
*1387 FILLER_5_286
*1388 FILLER_5_350
*1389 FILLER_5_354
*1390 FILLER_5_357
*1391 FILLER_5_421
*1392 FILLER_5_425
*1393 FILLER_5_428
*1394 FILLER_5_492
*1395 FILLER_5_496
*1396 FILLER_5_499
*1397 FILLER_5_507
*1398 FILLER_5_66
*1399 FILLER_5_70
*1400 FILLER_5_73
*1401 FILLER_60_101
*1402 FILLER_60_105
*1403 FILLER_60_108
*1404 FILLER_60_172
*1405 FILLER_60_176
*1406 FILLER_60_179
*1407 FILLER_60_2
*1408 FILLER_60_243
*1409 FILLER_60_247
*1410 FILLER_60_250
*1411 FILLER_60_314
*1412 FILLER_60_318
*1413 FILLER_60_321
*1414 FILLER_60_34
*1415 FILLER_60_37
*1416 FILLER_60_385
*1417 FILLER_60_389
*1418 FILLER_60_392
*1419 FILLER_60_456
*1420 FILLER_60_460
*1421 FILLER_60_463
*1422 FILLER_60_495
*1423 FILLER_60_503
*1424 FILLER_60_507
*1425 FILLER_61_137
*1426 FILLER_61_141
*1427 FILLER_61_144
*1428 FILLER_61_2
*1429 FILLER_61_208
*1430 FILLER_61_212
*1431 FILLER_61_215
*1432 FILLER_61_219
*1433 FILLER_61_283
*1434 FILLER_61_286
*1435 FILLER_61_350
*1436 FILLER_61_354
*1437 FILLER_61_357
*1438 FILLER_61_421
*1439 FILLER_61_425
*1440 FILLER_61_428
*1441 FILLER_61_492
*1442 FILLER_61_496
*1443 FILLER_61_499
*1444 FILLER_61_507
*1445 FILLER_61_66
*1446 FILLER_61_70
*1447 FILLER_61_73
*1448 FILLER_62_101
*1449 FILLER_62_105
*1450 FILLER_62_108
*1451 FILLER_62_172
*1452 FILLER_62_176
*1453 FILLER_62_179
*1454 FILLER_62_195
*1455 FILLER_62_2
*1456 FILLER_62_205
*1457 FILLER_62_209
*1458 FILLER_62_217
*1459 FILLER_62_232
*1460 FILLER_62_250
*1461 FILLER_62_258
*1462 FILLER_62_261
*1463 FILLER_62_293
*1464 FILLER_62_309
*1465 FILLER_62_317
*1466 FILLER_62_321
*1467 FILLER_62_34
*1468 FILLER_62_37
*1469 FILLER_62_385
*1470 FILLER_62_389
*1471 FILLER_62_392
*1472 FILLER_62_456
*1473 FILLER_62_460
*1474 FILLER_62_463
*1475 FILLER_62_495
*1476 FILLER_62_503
*1477 FILLER_62_507
*1478 FILLER_63_137
*1479 FILLER_63_141
*1480 FILLER_63_144
*1481 FILLER_63_2
*1482 FILLER_63_208
*1483 FILLER_63_212
*1484 FILLER_63_215
*1485 FILLER_63_247
*1486 FILLER_63_253
*1487 FILLER_63_259
*1488 FILLER_63_267
*1489 FILLER_63_271
*1490 FILLER_63_277
*1491 FILLER_63_281
*1492 FILLER_63_283
*1493 FILLER_63_286
*1494 FILLER_63_350
*1495 FILLER_63_354
*1496 FILLER_63_357
*1497 FILLER_63_421
*1498 FILLER_63_425
*1499 FILLER_63_428
*1500 FILLER_63_492
*1501 FILLER_63_496
*1502 FILLER_63_499
*1503 FILLER_63_507
*1504 FILLER_63_66
*1505 FILLER_63_70
*1506 FILLER_63_73
*1507 FILLER_64_101
*1508 FILLER_64_105
*1509 FILLER_64_108
*1510 FILLER_64_172
*1511 FILLER_64_176
*1512 FILLER_64_179
*1513 FILLER_64_2
*1514 FILLER_64_211
*1515 FILLER_64_227
*1516 FILLER_64_235
*1517 FILLER_64_241
*1518 FILLER_64_247
*1519 FILLER_64_250
*1520 FILLER_64_254
*1521 FILLER_64_262
*1522 FILLER_64_264
*1523 FILLER_64_273
*1524 FILLER_64_279
*1525 FILLER_64_283
*1526 FILLER_64_287
*1527 FILLER_64_321
*1528 FILLER_64_34
*1529 FILLER_64_37
*1530 FILLER_64_385
*1531 FILLER_64_389
*1532 FILLER_64_392
*1533 FILLER_64_456
*1534 FILLER_64_460
*1535 FILLER_64_463
*1536 FILLER_64_495
*1537 FILLER_64_503
*1538 FILLER_64_507
*1539 FILLER_65_137
*1540 FILLER_65_141
*1541 FILLER_65_144
*1542 FILLER_65_2
*1543 FILLER_65_208
*1544 FILLER_65_212
*1545 FILLER_65_215
*1546 FILLER_65_223
*1547 FILLER_65_227
*1548 FILLER_65_243
*1549 FILLER_65_245
*1550 FILLER_65_248
*1551 FILLER_65_265
*1552 FILLER_65_269
*1553 FILLER_65_273
*1554 FILLER_65_281
*1555 FILLER_65_283
*1556 FILLER_65_286
*1557 FILLER_65_350
*1558 FILLER_65_354
*1559 FILLER_65_357
*1560 FILLER_65_421
*1561 FILLER_65_425
*1562 FILLER_65_428
*1563 FILLER_65_492
*1564 FILLER_65_496
*1565 FILLER_65_499
*1566 FILLER_65_507
*1567 FILLER_65_66
*1568 FILLER_65_70
*1569 FILLER_65_73
*1570 FILLER_66_101
*1571 FILLER_66_105
*1572 FILLER_66_108
*1573 FILLER_66_172
*1574 FILLER_66_176
*1575 FILLER_66_179
*1576 FILLER_66_187
*1577 FILLER_66_191